Circuit: * C:\Users\Florian\Documents\dev\stomp\harmonic_jerkulator\sim\harmonic_jerkulator_01.asc

WARNING: Less than two connections to node NC_01.  This node is used by V1.
WARNING: Less than two connections to node N011.  This node is used by V2.
Direct Newton iteration for .op point succeeded.

Date: Sun Jul 15 23:27:59 2018
Total elapsed time: 0.926 seconds.

tnom = 27
temp = 27
method = modified trap
totiter = 106394
traniter = 106383
tranpoints = 49075
accept = 45923
rejected = 3152
matrix size = 31
fillins = 12
solver = Normal
Matrix Compiler1: 2.26 KB object code size  0.4/0.3/[0.2]
Matrix Compiler2: off  [0.2]/0.4/0.2

